Version 4
SHEET 1 1784 680
WIRE 144 -128 112 -128
WIRE 240 -128 224 -128
WIRE 352 -128 240 -128
WIRE 512 -128 352 -128
WIRE 624 -128 512 -128
WIRE 784 -128 624 -128
WIRE 896 -128 784 -128
WIRE 1056 -128 896 -128
WIRE 1168 -128 1056 -128
WIRE 1328 -128 1168 -128
WIRE 1440 -128 1328 -128
WIRE 1440 -80 1440 -128
WIRE 1168 -48 1168 -128
WIRE 1328 -32 1328 -128
WIRE 1360 -32 1328 -32
WIRE 896 -16 896 -128
WIRE 1056 0 1056 -128
WIRE 1088 0 1056 0
WIRE 1328 0 1328 -32
WIRE 1360 0 1328 0
WIRE 624 16 624 -128
WIRE 784 32 784 -128
WIRE 816 32 784 32
WIRE 1056 32 1056 0
WIRE 1088 32 1056 32
WIRE 1328 32 1264 32
WIRE 1360 32 1328 32
WIRE 352 48 352 -128
WIRE 512 64 512 -128
WIRE 544 64 512 64
WIRE 784 64 784 32
WIRE 816 64 784 64
WIRE 1056 64 992 64
WIRE 1088 64 1056 64
WIRE 240 96 240 -128
WIRE 272 96 240 96
WIRE 512 96 512 64
WIRE 544 96 512 96
WIRE 784 96 720 96
WIRE 816 96 784 96
WIRE 240 128 240 96
WIRE 272 128 240 128
WIRE 512 128 448 128
WIRE 544 128 512 128
WIRE 224 160 192 160
WIRE 272 160 224 160
WIRE 192 192 192 160
WIRE 112 320 112 -128
WIRE 192 320 192 272
WIRE 192 320 112 320
WIRE 352 320 352 208
WIRE 352 320 192 320
WIRE 624 320 624 176
WIRE 624 320 352 320
WIRE 896 320 896 144
WIRE 896 320 624 320
WIRE 1168 320 1168 112
WIRE 1168 320 896 320
WIRE 1440 320 1440 80
WIRE 1440 320 1168 320
WIRE 192 352 192 320
FLAG 224 160 a
FLAG 192 352 0
FLAG 512 128 b
FLAG 784 96 c
FLAG 1056 64 d
FLAG 1328 32 e
FLAG 1536 0 f
SYMBOL voltage 240 -128 R90
WINDOW 0 -32 56 VBottom 2
WINDOW 3 32 56 VTop 2
WINDOW 123 0 0 Left 0
WINDOW 39 0 0 Left 0
SYMATTR InstName V1
SYMATTR Value 1.8
SYMBOL voltage 192 176 R0
WINDOW 3 -453 53 Left 2
WINDOW 123 0 0 Left 0
WINDOW 39 0 0 Left 0
SYMATTR Value PULSE(0 1.8 1n 50ps 50ps 2ns 4ns)
SYMATTR InstName V2
SYMBOL NAND3 272 128 R0
WINDOW 0 -16 -48 Bottom 2
SYMATTR InstName X1
SYMATTR SpiceLine MP=1 MN=1
SYMBOL NAND3 544 96 R0
WINDOW 0 -16 -48 Bottom 2
SYMATTR InstName X2
SYMATTR SpiceLine MP=2*h MN=h
SYMBOL NAND3 816 64 R0
WINDOW 0 -16 -48 Bottom 2
SYMATTR InstName UUT
SYMATTR SpiceLine MP=2*h*h MN=h*h
SYMBOL NAND3 1088 32 R0
WINDOW 0 -16 -48 Bottom 2
SYMATTR InstName X4
SYMATTR SpiceLine MP=2*h*h*h MN=h*h*h
SYMBOL NAND3 1360 0 R0
WINDOW 0 -16 -48 Bottom 2
SYMATTR InstName X5
SYMATTR SpiceLine MP=2*h*h*h*h MN=h*h*h*h
TEXT -264 416 Left 2 !.include "..\\TSMC180nm.sp"
TEXT -264 440 Left 2 !.tran 10p 10n
TEXT -264 392 Left 2 !.step param h 1 4 1
TEXT 376 392 Left 2 !.meas TRAN pdr TRIG V(c)=0.5*1.8 FALL=c TARG V(d)=0.5*1.8 RISE=d
TEXT 376 416 Left 2 !.meas TRAN pdf TRIG V(c)=0.5*1.8 RISE=c TARG V(d)=0.5*1.8 FALL=d
