Version 4
SHEET 1 1972 1932
WIRE 192 -176 -96 -176
WIRE -96 -160 -96 -176
WIRE 192 -96 192 -176
WIRE 128 -48 -96 -48
WIRE 384 -48 256 -48
WIRE -96 -16 -96 -48
WIRE 192 48 192 0
WIRE 384 48 384 16
WIRE 384 48 192 48
WIRE 192 64 192 48
FLAG -96 -80 0
FLAG -96 64 0
FLAG 192 64 0
SYMBOL tutorial_inv 144 -48 R0
WINDOW 39 -12 -14 Bottom 2
SYMATTR SpiceLine MP=5 MN=10
SYMATTR InstName X1
SYMBOL voltage -96 -176 R0
WINDOW 123 0 0 Left 0
WINDOW 39 0 0 Left 0
SYMATTR InstName V1
SYMATTR Value 1.8
SYMBOL voltage -96 -32 R0
WINDOW 3 -453 53 Left 2
WINDOW 123 0 0 Left 0
WINDOW 39 0 0 Left 0
SYMATTR Value PULSE(0 1.8 1n 50ps 50ps 2ns 4ns)
SYMATTR InstName V2
SYMBOL cap 368 -48 R0
SYMATTR InstName C1
SYMATTR Value 50f
TEXT -552 128 Left 2 !.include "C:\\Users\\Colin Keenan\\OneDrive\\School\\Cal Poly Pomona\\Year 4\\Spring\\ECE 4203\\VLSI Project 2\\TSMC180nm.sp"
TEXT -552 152 Left 2 !.tran 10p 10n
